/*--------------------------------*- C++ -*----------------------------------*\
| =========                 |                                                 |
| \\      /  F ield         | OpenFOAM: The Open Source CFD Toolbox           |
|  \\    /   O peration     | Version:  v2312                                 |
|   \\  /    A nd           | Website:  www.openfoam.com                      |
|    \\/     M anipulation  |                                                 |
\*---------------------------------------------------------------------------*/
FoamFile
{
    version     2.0;
    format      ascii;
    class       dictionary;
    object      fvOptions;
}
// * * * * * * * * * * * * * * * * * * * * * * * * * * * * * * * * * * * * * //

FoamFile
{
    version     2.0;
    format      ascii;
    class       dictionary;
    object      fvOptions;
}

// Optional limiter for temperature (disabled)
limitT
{
    type              limitTemperature;
    active            no;
    selectionMode     all;
    min               290;
    max               320;
}

// ===== 🌳 SOURCES FOR ZONE: trees ===== //

trees_USource
{
    type              USource;
    active            yes;
    fields            (U);
    selectionMode     cellZone;
    cellZone          trees;
}

trees_kSource
{
    type              kSource;
    active            yes;
    fields            (k);
    selectionMode     cellZone;
    cellZone          trees;
}

trees_epsilonSource
{
    type              epsilonSource;
    active            yes;
    fields            (epsilon);
    selectionMode     cellZone;
    cellZone          trees;
}

trees_ESource
{
    type              ESource;
    active            yes;
    fields            (T);
    selectionMode     cellZone;
    cellZone          trees;
}

trees_specHumSource
{
    type              specHumSource;
    active            yes;
    fields            (specHum);
    selectionMode     cellZone;
    cellZone          trees;
}

// ===== 🪴 SOURCES FOR ZONE: pots ===== //

pots_USource
{
    type              USource;
    active            yes;
    fields            (U);
    selectionMode     cellZone;
    cellZone          pots;
}

pots_kSource
{
    type              kSource;
    active            yes;
    fields            (k);
    selectionMode     cellZone;
    cellZone          pots;
}

pots_epsilonSource
{
    type              epsilonSource;
    active            yes;
    fields            (epsilon);
    selectionMode     cellZone;
    cellZone          pots;
}

pots_ESource
{
    type              ESource;
    active            yes;
    fields            (T);
    selectionMode     cellZone;
    cellZone          pots;
}

pots_specHumSource
{
    type              specHumSource;
    active            yes;
    fields            (specHum);
    selectionMode     cellZone;
    cellZone          pots;
}


// ************************************************************************* //