/*--------------------------------*- C++ -*----------------------------------*\
| =========                 |                                                 |
| \\      /  F ield         | OpenFOAM: The Open Source CFD Toolbox           |
|  \\    /   O peration     | Version:  v2312                                 |
|   \\  /    A nd           | Website:  www.openfoam.com                      |
|    \\/     M anipulation  |                                                 |
\*---------------------------------------------------------------------------*/

FoamFile
{
    version     2.0;
    format      ascii;
    class       dictionary;
    object      refineMeshDict;
}

// * * * * * * * * * * * * * * * * * * * * * * * * * * * * * * * * * * * * * //

set refined_region_large;
refinementLevel 1;
refineCellsOnly true;
refineBoundary false;
useHexTopology true;
directions (x y z);

coordinateSystem
{
    type cartesian;
    origin (0 0 0);
    coordinateRotation
    {
        type axesRotation;
        e1 (1 0 0);
        e2 (0 1 0);
    }
}

writeMesh true;

// ************************************************************************* //