/*--------------------------------*- C++ -*----------------------------------*\
| =========                 |                                                 |
| \\      /  F ield         | OpenFOAM: The Open Source CFD Toolbox           |
|  \\    /   O peration     | Version:  v2012                                 |
|   \\  /    A nd           | Website:  www.openfoam.com                      |
|    \\/     M anipulation  |                                                 |
\*---------------------------------------------------------------------------*/
FoamFile
{
    version     2.0;
    format      ascii;
    class       dictionary;
    object      topoSetDict;
}

// * * * * * * * * * * * * * * * * * * * * * * * * * * * * * * * * * * * * * //

actions
(	
	// 🔹 Define tree zone
    {
        name        trees;
        type        cellZoneSet;
        action      new;
        //source      setToCellZone;
		//set         treeSet;
		source      boxToCell;
        sourceInfo
        {
            box (10 0.9 5.22) (13.14 1.35 5.78);  //box (8.75 0 1.0) (9.75 1 2.0)
        }		
    }
	
	// 🔹 Define pot zone
	{
        name        pots;
        type        cellZoneSet;
        action      new;
		source      boxToCell;
        sourceInfo
        {
            box (10 0.8 5.22) (13.14 0.9 5.78);
        }		
    }
	
	// 🔹 Combine trees and pots into refined_region
	//{
    //    name        refined_region;
    //    type        cellZoneSet;
    //    action      new;
    //    source      zoneToCell;
	//	zone        trees;
	//}
		
	//{
    //    name        refined_region;
    //    type        cellZoneSet;
    //    action      add;
    //    source      zoneToCell;
	//	zone        pots;
	//}

);

// ************************************************************************* //