/*--------------------------------*- C++ -*----------------------------------*\
| =========                 |                                                 |
| \\      /  F ield         | OpenFOAM: The Open Source CFD Toolbox           |
|  \\    /   O peration     | Version:  v2012                                 |
|   \\  /    A nd           | Website:  www.openfoam.com                      |
|    \\/     M anipulation  |                                                 |
\*---------------------------------------------------------------------------*/
FoamFile
{
    version     2.0;
    format      ascii;
    class       dictionary;
    object      topoSetDict;
}

// * * * * * * * * * * * * * * * * * * * * * * * * * * * * * * * * * * * * * //

actions
(	
	
	// Combine trees and pots into refined_region
	{
        name        refined_region;
        type        cellZoneSet;
        action      new;
		source      boxToCell;
        sourceInfo
        {
            box (10 0.8 5.22) (13.14 1.35 5.78);
        }		
    }
);

// ************************************************************************* //