/*--------------------------------*- C++ -*----------------------------------*\
| =========                 |                                                 |
| \\      /  F ield         | OpenFOAM: The Open Source CFD Toolbox           |
|  \\    /   O peration     | Version:  v2312                                 |
|   \\  /    A nd           | Website:  www.openfoam.com                      |
|    \\/     M anipulation  |                                                 |
\*---------------------------------------------------------------------------*/
FoamFile
{
    version     2.0;
    format      ascii;
    class       dictionary;
    object      boundaryRadiationProperties;
}
// * * * * * * * * * * * * * * * * * * * * * * * * * * * * * * * * * * * * * //

".*"
{
    type        transparent;

    wallAbsorptionEmissionModel
    {
        type            multiBandAbsorption;
        emissivity      (1); // Sin emisión
        absorptivity    (0); // Sin absorción
    }
}

floor
{
    type        opaqueDiffusive;

    wallAbsorptionEmissionModel
    {
        type            multiBandAbsorption;
        absorptivity    (0.9);
        emissivity      (0.9);
    }
}

fixedWalls
{
    type        opaqueReflective;

    fd          0.3;
    wallAbsorptionEmissionModel
    {
        type            multiBandAbsorption;
        absorptivity    (0.5);
        emissivity      (0.6);
    }
}

ceiling
{
    type        opaqueReflective;

    fd          0.2; // 20% difuso, 80% especular
    wallAbsorptionEmissionModel
    {
        type            multiBandAbsorption;
        absorptivity    (0.4);
        emissivity      (0.5);
    }
}


// ************************************************************************* //