/*--------------------------------*- C++ -*----------------------------------*\
| =========                 |                                                 |
| \\      /  F ield         | OpenFOAM: The Open Source CFD Toolbox           |
|  \\    /   O peration     | Version:  v2312                                 |
|   \\  /    A nd           | Website:  www.openfoam.com                      |
|    \\/     M anipulation  |                                                 |
\*---------------------------------------------------------------------------*/
FoamFile
{
    version     2.0;
    format      ascii;
    class       volScalarField;
    object      specHum;
}
// * * * * * * * * * * * * * * * * * * * * * * * * * * * * * * * * * * * * * //

dimensions      [0 0 0 0 0 0 0];

internalField   uniform 0.00621; //0.00621 sepecific humidity for a relative humidity of 21.04% - 0.0160 sepecific humidity for a relative humidity of 60%

boundaryField
{
    floor
    {
        type            zeroGradient;
    }

    ceiling
    {
        //type            zeroGradient;
		type            symmetryPlane;
    }

    fixedWalls
    {
        type            zeroGradient;
    }

    inlet
    {
        //type            inletOutlet;
        //value           $internalField;
        //inletValue      $internalField;
		type            fixedValue;
        value           $internalField;
    }

    outlet
    {
        //type            inletOutlet;
        //value           $internalField;
        //inletValue      $internalField;
		type            zeroGradient;
    }
	
}


// ************************************************************************* //