/*--------------------------------*- C++ -*----------------------------------*\
| =========                 |                                                 |
| \\      /  F ield         | OpenFOAM: The Open Source CFD Toolbox           |
|  \\    /   O peration     | Version:  v2312                                 |
|   \\  /    A nd           | Website:  www.openfoam.com                      |
|    \\/     M anipulation  |                                                 |
\*---------------------------------------------------------------------------*/
FoamFile
{
    version     2.0;
    format      ascii;
    class       volScalarField;
    object      TLeaf;
}
// * * * * * * * * * * * * * * * * * * * * * * * * * * * * * * * * * * * * * //

dimensions      [0 0 0 1 0 0 0];

internalField   uniform 305.15;

boundaryField
{
    floor
    {
        type            zeroGradient;
		//type            fixedValue;
        //value           uniform 297.15;
    }

    ceiling
    {
        //type            zeroGradient;
		type            symmetryPlane;
    }

    fixedWalls
    {
        type            zeroGradient;
    }

    inlet
    {
        type            inletOutlet;
        value           uniform 305.15;
        inletValue      uniform 305.15;
    }

    outlet
    {
		type            zeroGradient;
		//type            inletOutlet;
        //value           uniform 305.15;
        //inletValue      uniform 305.15;
    }
	
}


// ************************************************************************* //