/*--------------------------------*- C++ -*----------------------------------*\
| =========                 |                                                 |
| \\      /  F ield         | OpenFOAM: The Open Source CFD Toolbox           |
|  \\    /   O peration     | Version:  v2312                                 |
|   \\  /    A nd           | Website:  www.openfoam.com                      |
|    \\/     M anipulation  |                                                 |
\*---------------------------------------------------------------------------*/
FoamFile
{
    version     2.0;
    format      ascii;
    class       volVectorField;
    object      U;
}
// * * * * * * * * * * * * * * * * * * * * * * * * * * * * * * * * * * * * * //

dimensions      [0 1 -1 0 0 0 0];
Uinlet          (0.09 0 0);
internalField   uniform $Uinlet;

boundaryField
{
    floor
    {
        type            noSlip;
    }

    ceiling
    {
        //type            noSlip;
		type            symmetryPlane;
    }

    fixedWalls
    {
        type            noSlip;
    }
	
	inlet
    {
        type            fixedValue;
		//type            atmBoundaryLayerInletVelocity;
        //#include        "include/ABLConditions"		
		value           uniform $Uinlet;
    }
	
	outlet
	{
		type            inletOutlet;
        inletValue      uniform $Uinlet;
        value           $internalField;
	}
	
}


// ************************************************************************* //